/*--------------------------------*- C++ -*----------------------------------*\
| =========                 |                                                 |
| \\      /  F ield         | OpenFOAM: The Open Source CFD Toolbox           |
|  \\    /   O peration     | Version:  v1706                                 |
|   \\  /    A nd           | Web:      www.OpenFOAM.org                      |
|    \\/     M anipulation  |                                                 |
\*---------------------------------------------------------------------------*/
FoamFile
{
    version     2.0;
    format      ascii;
    class       dictionary;
    location    "system";
    object      surfaces;
}
// * * * * * * * * * * * * * * * * * * * * * * * * * * * * * * * * * * * * * //


surfaceSampling
{
	type surfaces;
	functionObjectLibs("libsampling.so");
	writeControl writeTime;

	interpolationScheme cellPoint;
	surfaceFormat raw;

	fields
	(
		U
		p
		wallHeatFlux
		Y_CO2
		Y_CO
		Y_O
		Y_O2
	);
	
	surfaces
	(
		wall
		{
			type patch;
			patches (wall);
			interpolate true;
		}
	);
};
