/*--------------------------------*- C++ -*----------------------------------*\
| =========                 |                                                 |
| \\      /  F ield         | OpenFOAM: The Open Source CFD Toolbox           |
|  \\    /   O peration     | Version:  v1706                                 |
|   \\  /    A nd           | Web:      www.OpenFOAM.org                      |
|    \\/     M anipulation  |                                                 |
\*---------------------------------------------------------------------------*/
FoamFile
{
    version     2.0;
    format      ascii;
    class       dictionary;
    location    "constant";
    object      chemistryProperties;
}
// * * * * * * * * * * * * * * * * * * * * * * * * * * * * * * * * * * * * * //

chemistryType
{
    chemistrySolver   Euler2Implicit;//what are the options?
    chemistryThermo   rho2;
}

chemistry           on;

initialChemicalTimeStep 1.0e-10; //Sync?? was e-9 before

Euler2ImplicitCoeffs
{
    cTauChem        1.0;
    equilibriumRateLimiter off;
}

modifiedTemperature off;
modifiedTemperatureCoeffs
{
    Tmin      800.0;
    epsilon   80.0;
}

chemistryVibrationCoupling
{
    model ParkTTv;
    
    ParkTTvCoeffs
    {
        exponentTtr         0.7;
        sourceTermModel     preferential;
        
        preferentialModel
        {
            factorType      constant; //Tem que achar os coeficientes desse fator. Esse é o fator que multiplica o dissociation potential (olhar artigo do hystrath)
            constantFactor  0.3;// park book!
            
            lineFittedCoeffs // Holman and Boyd (2011)/ da pra colocar o fator de cada um de forma forçada, mas sei la.
            {
                vibFactor
                {
                    N2          (5.772e-6 0.162);
                    O2          (1.136e-5 0.166);
                    NO          (9.582e-5 0.190);
                }    
            }    
        }
    } 
    
    CVDVCoeffs
    {
        reciprocalU     3;
        simpleHarmonicOscillatorVibCutOff
        {
            N2   34;
            O2   27;
            NO   28;
            N2+  34;
            O2+  27;
            NO+  28;
        }
    }
}


// ************************************************************************* //
