/*--------------------------------*- C++ -*----------------------------------*\
| =========                 |                                                 |
| \\      /  F ield         | OpenFOAM: The Open Source CFD Toolbox           |
|  \\    /   O peration     | Version:  v1706                                 |
|   \\  /    A nd           | Web:      www.OpenFOAM.org                      |
|    \\/     M anipulation  |                                                 |
\*---------------------------------------------------------------------------*/
FoamFile
{
    version     2.0;
    format      ascii;
    class       volScalarField;
    object      p;
}
// * * * * * * * * * * * * * * * * * * * * * * * * * * * * * * * * * * * * * //

#include "include/initialConditions"

dimensions      [1 -1 -2 0 0 0 0];
//p = N/m^2 = kg m/s^2/m^2 = kg/ms2
internalField   uniform $pressure;

boundaryField
{
//front = inlet
//back = outlet
//top and bottom are the freestream boundaries
//right and left are the empty (width) boundaries

	front
	{
		type 	fixedValue;
		value	uniform $pressureInlet; 
	}

	back
	{
		type zeroGradient;
	}

	top
	{
		type zeroGradient;
	}
	
	bottom
	{
		type zeroGradient;
	}
	
	right
	{
		type empty;
	}

	left
	{
		type empty;
	}

	wall
	{
		type zeroGradient;
	}

    #include "include/boundaries"
}

// ************************************************************************* //
