/*--------------------------------*- C++ -*----------------------------------*\
| =========                 |                                                 |
| \\      /  F ield         | OpenFOAM: The Open Source CFD Toolbox           |
|  \\    /   O peration     | Version:  v1706                                 |
|   \\  /    A nd           | Web:      www.OpenFOAM.org                      |
|    \\/     M anipulation  |                                                 |
\*---------------------------------------------------------------------------*/
FoamFile
{
    version     2.0;
    format      ascii;
    class       volScalarField;
    location    "0";
    object      X_NO;
}
// * * * * * * * * * * * * * * * * * * * * * * * * * * * * * * * * * * * * * //

#include "include/initialConditions"

dimensions      [0 0 0 0 0 0 0];

internalField   uniform $X_NO;

boundaryField
{
    front
    {
        type            fixedValue;
        value           uniform $X_NO;
    }
    
    back
    {
        type            zeroGradient;
    }
top
{
type zeroGradient;
}
bottom
{
type zeroGradient;
}
right
{
type empty;
}
left
{
type empty;
}
wall
{
type fixedValue;
value uniform $X_NO;
}
    
    #include "include/boundaries"
}


// ************************************************************************* //
